LTspice 24.1.7 for Windows
Circuit: Z:\home\debarghaya\Documents\GitHub\IEM-Assignments\Semester 3\Analog Electronics Circuit Lab\Assignment 5a (ii).net
Start Time: Tue Aug 12 22:58:28 2025
solver = Normal
Maximum thread count: 12
tnom = 27
temp = 27
method = trap
.OP point found by inspection.
.step Vbe=0 
.step Vbe=1 
.step Vbe=2 
.step Vbe=3 
.step Vbe=4 
.step Vbe=5 
Total elapsed time: 0.298 seconds.

Files loaded:
Z:\home\debarghaya\Documents\GitHub\IEM-Assignments\Semester 3\Analog Electronics Circuit Lab\Assignment 5a (ii).net
C:\users\debarghaya\AppData\Local\LTspice\lib\cmp\standard.bjt

