LTspice 24.1.7 for Windows
Circuit: Z:\home\debarghaya\Documents\GitHub\IEM-Assignments\Semester 3\Analog Electronics Circuit Lab\Assignment 3a (vi).net
Start Time: Tue Aug  5 21:43:45 2025
solver = Normal
Maximum thread count: 12
tnom = 27
temp = 27
method = trap
.OP point found by inspection.
Total elapsed time: 0.444 seconds.

Files loaded:
Z:\home\debarghaya\Documents\GitHub\IEM-Assignments\Semester 3\Analog Electronics Circuit Lab\Assignment 3a (vi).net
C:\users\debarghaya\AppData\Local\LTspice\lib\cmp\standard.dio

