LTspice 24.1.9 for Windows
Circuit: Z:\home\debarghaya\Documents\GitHub\IEM-Assignments\Semester 3\Analog Electronics Circuit Lab\Assignment 5c (ii).net
Start Time: Wed Sep  3 01:30:30 2025
solver = Normal
Maximum thread count: 12
tnom = 27
temp = 27
method = trap
.step Vbe=0 
.step Vbe=1 
.step Vbe=2 
.step Vbe=3 
.step Vbe=4 
.step Vbe=5 
Total elapsed time: 0.230 seconds.

Files loaded:
Z:\home\debarghaya\Documents\GitHub\IEM-Assignments\Semester 3\Analog Electronics Circuit Lab\Assignment 5c (ii).net
C:\users\debarghaya\AppData\Local\LTspice\lib\cmp\standard.bjt

