LTspice 24.1.7 for Windows
Circuit: Z:\home\debarghaya\Documents\GitHub\IEM-Assignments\Semester 3\Analog Electronics Circuit Lab\Assignment 5a (i).net
Start Time: Tue Aug 12 22:57:02 2025
solver = Normal
Maximum thread count: 12
tnom = 27
temp = 27
method = trap
.OP point found by inspection.
.step Vce=0 
.step Vce=1 
.step Vce=2 
.step Vce=3 
.step Vce=4 
.step Vce=5 
Total elapsed time: 0.263 seconds.

Files loaded:
Z:\home\debarghaya\Documents\GitHub\IEM-Assignments\Semester 3\Analog Electronics Circuit Lab\Assignment 5a (i).net
C:\users\debarghaya\AppData\Local\LTspice\lib\cmp\standard.bjt

