LTspice 24.1.9 for Windows
Circuit: Z:\home\debarghaya\Documents\GitHub\IEM-Assignments\Semester 3\Analog Electronics Circuit Lab\Assignment 5b (i).net
Start Time: Wed Sep  3 01:10:27 2025
solver = Normal
Maximum thread count: 12
tnom = 27
temp = 27
method = trap
.OP point found by inspection.
.step Vec=0 
.step Vec=1 
.step Vec=2 
.step Vec=3 
.step Vec=4 
.step Vec=5 
Total elapsed time: 0.310 seconds.

Files loaded:
Z:\home\debarghaya\Documents\GitHub\IEM-Assignments\Semester 3\Analog Electronics Circuit Lab\Assignment 5b (i).net
C:\users\debarghaya\AppData\Local\LTspice\lib\cmp\standard.bjt

