LTspice 24.1.7 for Windows
Circuit: Z:\home\debarghaya\Documents\GitHub\IEM-Assignments\Semester 3\Analog Electronics Circuit Lab\Assignment 2b (ii).net
Start Time: Tue Jul 22 20:17:51 2025
solver = Normal
Maximum thread count: 12
tnom = 27
temp = 27
method = trap
Direct Newton iteration for .op point succeeded.
Total elapsed time: 0.248 seconds.

Files loaded:
Z:\home\debarghaya\Documents\GitHub\IEM-Assignments\Semester 3\Analog Electronics Circuit Lab\Assignment 2b (ii).net
C:\users\debarghaya\AppData\Local\LTspice\lib\cmp\standard.dio

